Version 4.1
SHEET 1 2224 1200
WIRE 512 -32 240 -32
WIRE 560 -32 512 -32
WIRE 560 16 560 -32
WIRE 560 16 512 16
WIRE 464 48 464 -16
WIRE 464 48 336 48
WIRE -192 64 -256 64
WIRE -160 64 -192 64
WIRE 48 64 -160 64
WIRE 96 64 48 64
WIRE 112 64 112 0
WIRE 112 64 96 64
WIRE 240 64 240 -32
WIRE 240 64 112 64
WIRE -80 80 -112 80
WIRE 0 80 -80 80
WIRE 1136 80 1136 32
WIRE -192 112 -192 64
WIRE -160 112 -192 112
WIRE 96 112 96 64
WIRE 96 112 48 112
WIRE -160 176 -160 160
WIRE -80 176 -80 80
WIRE -80 176 -160 176
WIRE 1136 192 1136 160
WIRE 336 224 336 48
WIRE 336 224 240 224
WIRE 336 240 336 224
WIRE 512 240 512 64
WIRE 512 240 480 240
WIRE 48 272 48 160
WIRE 240 272 240 224
WIRE 240 272 48 272
WIRE -448 336 -448 288
WIRE 512 336 512 240
WIRE 512 336 320 336
WIRE -160 384 -160 176
WIRE 48 384 48 272
WIRE 320 400 320 336
WIRE 464 400 320 400
WIRE 560 400 464 400
WIRE -64 432 -64 416
WIRE -64 432 -160 432
WIRE 48 432 -64 432
WIRE 1216 432 1216 368
WIRE -448 448 -448 416
WIRE -368 448 -448 448
WIRE 320 448 320 400
WIRE 976 448 976 384
WIRE -448 464 -448 448
WIRE -208 464 -224 464
WIRE 112 464 96 464
WIRE 448 496 320 496
WIRE -448 512 -528 512
WIRE -160 512 -160 480
WIRE -48 512 -160 512
WIRE 48 512 48 480
WIRE 48 512 -48 512
WIRE 272 528 128 528
WIRE -368 544 -368 448
WIRE -368 544 -400 544
WIRE -256 544 -368 544
WIRE 1216 544 1216 512
WIRE 320 560 320 544
WIRE 448 560 448 496
WIRE 448 560 320 560
WIRE 976 560 976 528
WIRE 128 576 128 528
WIRE 128 576 -224 576
WIRE -528 592 -528 512
WIRE -448 592 -448 560
WIRE -448 592 -528 592
WIRE 320 592 320 560
WIRE -448 608 -448 592
WIRE -48 608 -48 512
WIRE 48 656 -48 656
WIRE -256 688 -256 544
WIRE -224 688 -224 576
WIRE -224 688 -256 688
WIRE -96 688 -224 688
WIRE 48 704 48 656
WIRE 48 704 -48 704
WIRE -48 752 -48 704
WIRE 144 928 48 928
WIRE -224 944 -320 944
WIRE -32 944 -32 928
WIRE -32 944 -224 944
WIRE -224 976 -224 944
WIRE -224 992 -224 976
WIRE -224 1104 -224 1040
FLAG 112 0 Vdd
FLAG 320 592 0
FLAG -64 416 0
FLAG -48 752 0
FLAG -448 608 0
FLAG -448 288 Vdd
FLAG 464 464 0
FLAG -224 464 Vin1
IOPIN -224 464 In
FLAG 112 464 Vin2
IOPIN 112 464 In
FLAG 560 400 Vout
IOPIN 560 400 Out
FLAG 1136 32 Vdd
FLAG 1136 192 0
FLAG 1216 544 0
FLAG 1216 368 Vin2
IOPIN 1216 368 In
FLAG -224 1104 Vsig
FLAG -32 1072 Vsig
FLAG -32 1152 0
FLAG 976 560 0
FLAG 976 384 Vin1
IOPIN 976 384 In
SYMBOL sym\\cmosp -112 160 R180
SYMATTR InstName M1
SYMATTR Value2 l=1u w=10u
SYMBOL sym\\cmosp 0 160 M180
SYMATTR InstName M2
SYMATTR Value2 l=1u w=10u
SYMBOL sym\\cmosp 464 64 M180
SYMATTR InstName M3
SYMATTR Value2 l=1.5u w=162.5u
SYMBOL sym\\cmosn -208 384 R0
SYMATTR InstName M4
SYMATTR Value2 l=1u w=6u
SYMBOL sym\\cmosn 96 384 M0
SYMATTR InstName M5
SYMATTR Value2 l=1u w=6u
SYMBOL sym\\cmosn -96 608 R0
SYMATTR InstName M6
SYMATTR Value2 l=1.5u w=6u
SYMBOL sym\\cmosn -400 464 M0
SYMATTR InstName M7
SYMATTR Value2 l=1.5u w=6u
SYMBOL sym\\cmosn 272 448 R0
SYMATTR InstName M8
SYMATTR Value2 l=1.5u w=35.5u
SYMBOL cap 400 224 R90
WINDOW 0 0 32 VBottom 2
WINDOW 3 32 32 VTop 2
SYMATTR InstName C1
SYMATTR Value 2p
SYMBOL current -448 336 R0
WINDOW 123 0 0 Left 0
WINDOW 39 0 0 Left 0
SYMATTR InstName I1
SYMATTR Value 8µ
SYMBOL cap 448 400 R0
SYMATTR InstName C2
SYMATTR Value 2p
SYMBOL voltage 1136 64 R0
WINDOW 123 24 124 Left 2
WINDOW 39 0 0 Left 0
SYMATTR Value2 AC 1
SYMATTR InstName V1
SYMATTR Value 2.5
SYMBOL voltage 1216 416 R0
WINDOW 123 24 124 Left 2
WINDOW 39 0 0 Left 0
SYMATTR InstName V3
SYMATTR Value .8
SYMBOL res 64 912 R90
WINDOW 0 0 56 VBottom 2
WINDOW 3 32 56 VTop 2
SYMATTR InstName Rin1
SYMATTR Value 1G
SYMBOL cap -240 976 R0
SYMATTR InstName Cac
SYMATTR Value 1µ
SYMBOL voltage -32 1056 R0
WINDOW 123 24 124 Left 2
WINDOW 39 0 0 Left 0
SYMATTR Value2 AC 0
SYMATTR InstName V4
SYMATTR Value 0
SYMBOL res 496 224 R90
WINDOW 0 0 56 VBottom 2
WINDOW 3 32 56 VTop 2
SYMATTR InstName Rz
SYMATTR Value 11k
SYMBOL voltage 976 432 R0
WINDOW 123 24 124 Left 2
WINDOW 39 0 0 Left 0
SYMATTR InstName V2
SYMATTR Value .8
TEXT -1048 0 Left 2 !.include tsmc018.lib
TEXT -1024 56 Left 2 ;.op
TEXT -1064 128 Left 2 !.ac dec 100 1 1G
TEXT -1008 336 Left 2 ;.ac dec 500 100k 200meg
TEXT -992 -376 Left 2 ;V3 Vin2 0 DC 0.8 AC 1\n.ac dec 100 1 1G\n \n\nthis was the test used to find CMRR, when plotting Vout,got around -2.6 db so \nCMRR is 78-(-2.6) which is about 80.6dB
TEXT -80 -424 Left 2 ;V1 Vdd 0 DC 2.5 AC 1\n.ac dec 100 1 1G\n \nthios was the test used for PSRR test\n \nturns out to be 78-(-5.19) which is about 83.2dB
